"US20240293380
     RDKit          3D

 50 53  0  0  0  0  0  0  0  0999 V2000
   -4.9948    1.5100   -0.1176 C   0  0  0  0  0  0  0  0  0  0  0  0
   -5.6401    0.5011   -0.9736 N   0  0  0  0  0  0  0  0  0  0  0  0
   -5.4155   -0.5236    0.0585 C   0  0  0  0  0  0  0  0  0  0  0  0
   -4.3037    0.3643    0.6601 C   0  0  0  0  0  0  0  0  0  0  0  0
   -2.7613    0.0923    0.3469 C   0  0  0  0  0  0  0  0  0  0  0  0
   -1.7648    0.7629    1.0840 C   0  0  0  0  0  0  0  0  0  0  0  0
   -2.2942   -0.8029   -0.6336 C   0  0  0  0  0  0  0  0  0  0  0  0
   -0.3966    0.5570    0.8621 C   0  0  0  0  0  0  0  0  0  0  0  0
   -0.9248   -1.0175   -0.8587 C   0  0  0  0  0  0  0  0  0  0  0  0
    0.0419   -0.3331   -0.1193 C   0  0  0  0  0  0  0  0  0  0  0  0
    1.4333   -0.5949   -0.3105 N   0  0  0  0  0  0  0  0  0  0  0  0
    1.8627   -2.0049   -0.3348 C   0  0  0  0  0  0  0  0  0  0  0  0
    2.4401    0.3675   -0.1691 C   0  0  0  0  0  0  0  0  0  0  0  0
    1.6441   -2.7103    0.9796 C   0  0  0  0  0  0  0  0  0  0  0  0
    3.5965    0.0583    0.1279 O   0  0  0  0  0  0  0  0  0  0  0  0
    2.0836    1.8235   -0.4685 C   0  0  0  0  0  0  0  0  0  0  0  0
    2.4523   -2.4417    2.0838 C   0  0  0  0  0  0  0  0  0  0  0  0
    0.6100   -3.6380    1.1494 C   0  0  0  0  0  0  0  0  0  0  0  0
    3.0918    2.4996   -1.3630 C   0  0  0  0  0  0  0  0  0  0  0  0
    2.2876   -3.0122    3.3017 N   0  0  0  0  0  0  0  0  0  0  0  0
    0.4293   -4.2380    2.3875 C   0  0  0  0  0  0  0  0  0  0  0  0
    4.3026    2.9735   -0.8575 C   0  0  0  0  0  0  0  0  0  0  0  0
    2.8595    2.6570   -2.7337 C   0  0  0  0  0  0  0  0  0  0  0  0
    1.2788   -3.9049    3.4251 C   0  0  0  0  0  0  0  0  0  0  0  0
   -0.5645   -5.1164    2.5682 F   0  0  0  0  0  0  0  0  0  0  0  0
    5.2437    3.5985   -1.6034 N   0  0  0  0  0  0  0  0  0  0  0  0
    3.8180    3.2841   -3.5180 C   0  0  0  0  0  0  0  0  0  0  0  0
    4.9805    3.7373   -2.9234 C   0  0  0  0  0  0  0  0  0  0  0  0
    3.6089    3.4473   -4.8301 F   0  0  0  0  0  0  0  0  0  0  0  0
   -5.7214    2.0882    0.4634 H   0  0  0  0  0  0  0  0  0  0  0  0
   -4.3424    2.1897   -0.6723 H   0  0  0  0  0  0  0  0  0  0  0  0
   -6.6284    0.6893   -1.1831 H   0  0  0  0  0  0  0  0  0  0  0  0
   -5.1288    0.3277   -1.8489 H   0  0  0  0  0  0  0  0  0  0  0  0
   -5.1236   -1.4949   -0.3465 H   0  0  0  0  0  0  0  0  0  0  0  0
   -6.2920   -0.6546    0.7036 H   0  0  0  0  0  0  0  0  0  0  0  0
   -4.4419    0.4720    1.7465 H   0  0  0  0  0  0  0  0  0  0  0  0
   -2.0519    1.4510    1.8803 H   0  0  0  0  0  0  0  0  0  0  0  0
   -2.9888   -1.3727   -1.2468 H   0  0  0  0  0  0  0  0  0  0  0  0
    0.3095    1.0602    1.5195 H   0  0  0  0  0  0  0  0  0  0  0  0
   -0.6348   -1.7153   -1.6410 H   0  0  0  0  0  0  0  0  0  0  0  0
    1.3412   -2.5254   -1.1461 H   0  0  0  0  0  0  0  0  0  0  0  0
    2.9253   -2.0761   -0.5992 H   0  0  0  0  0  0  0  0  0  0  0  0
    2.0199    2.3647    0.4829 H   0  0  0  0  0  0  0  0  0  0  0  0
    1.1046    1.9030   -0.9511 H   0  0  0  0  0  0  0  0  0  0  0  0
    3.2805   -1.7376    2.0230 H   0  0  0  0  0  0  0  0  0  0  0  0
   -0.0561   -3.9006    0.3349 H   0  0  0  0  0  0  0  0  0  0  0  0
    4.5622    2.8590    0.1930 H   0  0  0  0  0  0  0  0  0  0  0  0
    1.9481    2.3012   -3.2020 H   0  0  0  0  0  0  0  0  0  0  0  0
    1.1662   -4.3576    4.4046 H   0  0  0  0  0  0  0  0  0  0  0  0
    5.7478    4.2330   -3.5084 H   0  0  0  0  0  0  0  0  0  0  0  0
  1  2  1  0
  2  3  1  0
  4  1  1  0
  5  4  1  0
  3  4  1  0
  6  5  2  0
  5  7  1  0
  8  6  1  0
  7  9  2  0
 10  8  2  0
  9 10  1  0
 11 10  1  0
 12 11  1  0
 11 13  1  0
 14 12  1  0
 13 15  2  0
 13 16  1  0
 17 14  2  0
 14 18  1  0
 16 19  1  0
 20 17  1  0
 18 21  2  0
 19 22  2  0
 23 19  1  0
 24 20  2  0
 25 21  1  0
 21 24  1  0
 22 26  1  0
 27 23  2  0
 26 28  2  0
 28 27  1  0
 27 29  1  0
  1 30  1  0
  1 31  1  0
  2 32  1  0
  2 33  1  0
  3 34  1  0
  3 35  1  0
  4 36  1  0
  6 37  1  0
  7 38  1  0
  8 39  1  0
  9 40  1  0
 12 41  1  0
 12 42  1  0
 16 43  1  0
 16 44  1  0
 17 45  1  0
 18 46  1  0
 22 47  1  0
 23 48  1  0
 24 49  1  0
 28 50  1  0
M  CHG  1   2   1
M  END
>  <IC50 (nM)>  (1) 
Compound 83"

>  <cluster>  (1) 
5225.0

>  <Column_4>  (1) 
3

>  <ScrubInfo>  (1) 
{"isomerGroup": 0, "isomerId": 0, "confId": 0, "nr_conformers:": 1, "nr_isomers:": 1}

$$$$
"US20240293380
     RDKit          3D

 52 56  0  0  0  0  0  0  0  0999 V2000
   -1.1113    4.8215   -3.1891 Cl  0  0  0  0  0  0  0  0  0  0  0  0
   -0.0081    4.3141   -1.9696 C   0  0  0  0  0  0  0  0  0  0  0  0
    1.3354    4.6699   -2.0633 C   0  0  0  0  0  0  0  0  0  0  0  0
    2.2304    4.2539   -1.0786 C   0  0  0  0  0  0  0  0  0  0  0  0
    1.7794    3.4846   -0.0039 C   0  0  0  0  0  0  0  0  0  0  0  0
    0.4268    3.1244    0.1004 C   0  0  0  0  0  0  0  0  0  0  0  0
   -0.0591    2.2673    1.2516 C   0  0  0  0  0  0  0  0  0  0  0  0
   -0.1686    0.8439    0.8977 N   0  0  0  0  0  0  0  0  0  0  0  0
   -1.4309    0.3701    0.5241 C   0  0  0  0  0  0  0  0  0  0  0  0
   -2.3814    1.1340    0.3271 O   0  0  0  0  0  0  0  0  0  0  0  0
   -1.6252   -1.1477    0.4283 C   0  0  0  0  0  0  0  0  0  0  0  0
   -2.8654   -1.5712    1.1459 C   0  0  0  0  0  0  0  0  0  0  0  0
   -3.0188   -2.1250    2.4016 C   0  0  0  0  0  0  0  0  0  0  0  0
   -4.3311   -2.3947    2.6772 N   0  0  0  0  0  0  0  0  0  0  0  0
   -4.9963   -2.0047    1.6110 C   0  0  0  0  0  0  0  0  0  0  0  0
   -6.3893   -2.0386    1.3164 C   0  0  0  0  0  0  0  0  0  0  0  0
   -6.8359   -1.5773    0.1324 C   0  0  0  0  0  0  0  0  0  0  0  0
   -5.9248   -1.0348   -0.8621 C   0  0  0  0  0  0  0  0  0  0  0  0
   -4.6090   -1.0003   -0.5912 C   0  0  0  0  0  0  0  0  0  0  0  0
   -4.1471   -1.4823    0.6354 N   0  0  0  0  0  0  0  0  0  0  0  0
    1.0475    0.1253    0.6954 C   0  0  0  0  0  0  0  0  0  0  0  0
    2.0697    0.1765    1.6488 C   0  0  0  0  0  0  0  0  0  0  0  0
    3.2750   -0.5065    1.4431 C   0  0  0  0  0  0  0  0  0  0  0  0
    3.4892   -1.2462    0.2741 C   0  0  0  0  0  0  0  0  0  0  0  0
    2.4732   -1.2814   -0.6879 C   0  0  0  0  0  0  0  0  0  0  0  0
    1.2668   -0.6011   -0.4808 C   0  0  0  0  0  0  0  0  0  0  0  0
    4.7474   -1.9436    0.0701 C   0  0  0  0  0  0  0  0  0  0  0  0
    6.0442   -1.6800    0.5723 C   0  0  0  0  0  0  0  0  0  0  0  0
    6.9502   -2.5720    0.1637 N   0  0  0  0  0  0  0  0  0  0  0  0
    6.2382   -3.4147   -0.6001 N   0  0  0  0  0  0  0  0  0  0  0  0
    4.9162   -3.0839   -0.6876 C   0  0  0  0  0  0  0  0  0  0  0  0
   -0.4644    3.5471   -0.8980 C   0  0  0  0  0  0  0  0  0  0  0  0
    1.6902    5.2669   -2.8988 H   0  0  0  0  0  0  0  0  0  0  0  0
    3.2808    4.5256   -1.1498 H   0  0  0  0  0  0  0  0  0  0  0  0
    2.4951    3.1627    0.7499 H   0  0  0  0  0  0  0  0  0  0  0  0
    0.5975    2.3880    2.1206 H   0  0  0  0  0  0  0  0  0  0  0  0
   -1.0336    2.6453    1.5866 H   0  0  0  0  0  0  0  0  0  0  0  0
   -1.6695   -1.4280   -0.6292 H   0  0  0  0  0  0  0  0  0  0  0  0
   -0.7882   -1.6856    0.8829 H   0  0  0  0  0  0  0  0  0  0  0  0
   -2.2431   -2.3518    3.1224 H   0  0  0  0  0  0  0  0  0  0  0  0
   -7.0644   -2.4398    2.0630 H   0  0  0  0  0  0  0  0  0  0  0  0
   -7.8953   -1.5946   -0.1045 H   0  0  0  0  0  0  0  0  0  0  0  0
   -6.3275   -0.6595   -1.7966 H   0  0  0  0  0  0  0  0  0  0  0  0
   -3.8827   -0.5955   -1.2829 H   0  0  0  0  0  0  0  0  0  0  0  0
    1.9372    0.7127    2.5847 H   0  0  0  0  0  0  0  0  0  0  0  0
    4.0348   -0.4633    2.2205 H   0  0  0  0  0  0  0  0  0  0  0  0
    2.6138   -1.8153   -1.6249 H   0  0  0  0  0  0  0  0  0  0  0  0
    0.5297   -0.6089   -1.2795 H   0  0  0  0  0  0  0  0  0  0  0  0
    6.3674   -0.8717    1.2154 H   0  0  0  0  0  0  0  0  0  0  0  0
    6.7194   -4.1986   -1.0289 H   0  0  0  0  0  0  0  0  0  0  0  0
    4.2317   -3.6905   -1.2626 H   0  0  0  0  0  0  0  0  0  0  0  0
   -1.5167    3.2752   -0.8397 H   0  0  0  0  0  0  0  0  0  0  0  0
  1  2  1  0
  2  3  2  0
  3  4  1  0
  4  5  2  0
  5  6  1  0
  6  7  1  0
  7  8  1  0
  8  9  1  0
  9 10  2  0
  9 11  1  0
 11 12  1  0
 12 13  2  0
 13 14  1  0
 14 15  2  0
 15 16  1  0
 16 17  2  0
 17 18  1  0
 18 19  2  0
 19 20  1  0
  8 21  1  0
 21 22  2  0
 22 23  1  0
 23 24  2  0
 24 25  1  0
 25 26  2  0
 24 27  1  0
 27 28  1  0
 28 29  2  0
 29 30  1  0
 30 31  1  0
  6 32  2  0
 32  2  1  0
 20 12  1  0
 26 21  1  0
 31 27  2  0
 20 15  1  0
  3 33  1  0
  4 34  1  0
  5 35  1  0
  7 36  1  0
  7 37  1  0
 11 38  1  0
 11 39  1  0
 13 40  1  0
 16 41  1  0
 17 42  1  0
 18 43  1  0
 19 44  1  0
 22 45  1  0
 23 46  1  0
 25 47  1  0
 26 48  1  0
 28 49  1  0
 30 50  1  0
 31 51  1  0
 32 52  1  0
M  END
>  <IC50 (nM)>  (2) 
Compound 4"

>  <cluster>  (2) 
1146.0

>  <Column_4>  (2) 
4

>  <ScrubInfo>  (2) 
{"isomerGroup": 1, "isomerId": 0, "confId": 0, "nr_conformers:": 1, "nr_isomers:": 1}

$$$$
"US20240293380
     RDKit          3D

 51 55  0  0  0  0  0  0  0  0999 V2000
    0.9364    4.0254   -4.2063 Cl  0  0  0  0  0  0  0  0  0  0  0  0
   -0.0874    3.7590   -2.8490 C   0  0  0  0  0  0  0  0  0  0  0  0
   -1.4375    4.0930   -2.9268 C   0  0  0  0  0  0  0  0  0  0  0  0
   -2.2682    3.8709   -1.8294 C   0  0  0  0  0  0  0  0  0  0  0  0
   -1.7467    3.3165   -0.6586 C   0  0  0  0  0  0  0  0  0  0  0  0
   -0.3868    2.9805   -0.5700 C   0  0  0  0  0  0  0  0  0  0  0  0
    0.1746    2.3544    0.6904 C   0  0  0  0  0  0  0  0  0  0  0  0
    0.2690    0.8894    0.6062 N   0  0  0  0  0  0  0  0  0  0  0  0
    1.5070    0.3415    0.2574 C   0  0  0  0  0  0  0  0  0  0  0  0
    2.4368    1.0411   -0.1588 O   0  0  0  0  0  0  0  0  0  0  0  0
    1.7077   -1.1584    0.4552 C   0  0  0  0  0  0  0  0  0  0  0  0
    2.9851   -1.4032    1.1784 C   0  0  0  0  0  0  0  0  0  0  0  0
    3.0968   -1.6973    2.4609 N   0  0  0  0  0  0  0  0  0  0  0  0
    4.4280   -1.8815    2.7500 N   0  0  0  0  0  0  0  0  0  0  0  0
    5.1087   -1.7015    1.6403 C   0  0  0  0  0  0  0  0  0  0  0  0
    6.4966   -1.7729    1.3402 C   0  0  0  0  0  0  0  0  0  0  0  0
    6.9164   -1.5477    0.0796 C   0  0  0  0  0  0  0  0  0  0  0  0
    5.9797   -1.2265   -0.9872 C   0  0  0  0  0  0  0  0  0  0  0  0
    4.6672   -1.1570   -0.7045 C   0  0  0  0  0  0  0  0  0  0  0  0
    4.2391   -1.3926    0.6026 N   0  0  0  0  0  0  0  0  0  0  0  0
   -0.9525    0.1524    0.6259 C   0  0  0  0  0  0  0  0  0  0  0  0
   -1.9097    0.3893    1.6178 C   0  0  0  0  0  0  0  0  0  0  0  0
   -3.1218   -0.3122    1.6240 C   0  0  0  0  0  0  0  0  0  0  0  0
   -3.4107   -1.2529    0.6285 C   0  0  0  0  0  0  0  0  0  0  0  0
   -2.4578   -1.4795   -0.3715 C   0  0  0  0  0  0  0  0  0  0  0  0
   -1.2430   -0.7830   -0.3742 C   0  0  0  0  0  0  0  0  0  0  0  0
   -4.6733   -1.9717    0.6465 C   0  0  0  0  0  0  0  0  0  0  0  0
   -5.5262   -2.3176    1.7218 C   0  0  0  0  0  0  0  0  0  0  0  0
   -6.6213   -2.9715    1.3257 N   0  0  0  0  0  0  0  0  0  0  0  0
   -6.4755   -3.0495   -0.0057 N   0  0  0  0  0  0  0  0  0  0  0  0
   -5.3293   -2.4645   -0.4625 C   0  0  0  0  0  0  0  0  0  0  0  0
    0.4394    3.2067   -1.6818 C   0  0  0  0  0  0  0  0  0  0  0  0
   -1.8471    4.5233   -3.8365 H   0  0  0  0  0  0  0  0  0  0  0  0
   -3.3235    4.1264   -1.8864 H   0  0  0  0  0  0  0  0  0  0  0  0
   -2.4130    3.1431    0.1841 H   0  0  0  0  0  0  0  0  0  0  0  0
    1.1669    2.7813    0.8853 H   0  0  0  0  0  0  0  0  0  0  0  0
   -0.4264    2.6428    1.5601 H   0  0  0  0  0  0  0  0  0  0  0  0
    1.7062   -1.6477   -0.5239 H   0  0  0  0  0  0  0  0  0  0  0  0
    0.9062   -1.5970    1.0558 H   0  0  0  0  0  0  0  0  0  0  0  0
    7.1899   -2.0091    2.1392 H   0  0  0  0  0  0  0  0  0  0  0  0
    7.9724   -1.5957   -0.1696 H   0  0  0  0  0  0  0  0  0  0  0  0
    6.3627   -1.0394   -1.9849 H   0  0  0  0  0  0  0  0  0  0  0  0
    3.9211   -0.9085   -1.4477 H   0  0  0  0  0  0  0  0  0  0  0  0
   -1.7194    1.0924    2.4242 H   0  0  0  0  0  0  0  0  0  0  0  0
   -3.8372   -0.1036    2.4165 H   0  0  0  0  0  0  0  0  0  0  0  0
   -2.6447   -2.2007   -1.1636 H   0  0  0  0  0  0  0  0  0  0  0  0
   -0.5559   -0.9537   -1.1986 H   0  0  0  0  0  0  0  0  0  0  0  0
   -5.3924   -2.1236    2.7783 H   0  0  0  0  0  0  0  0  0  0  0  0
   -7.2012   -3.5133   -0.5424 H   0  0  0  0  0  0  0  0  0  0  0  0
   -5.1011   -2.4459   -1.5183 H   0  0  0  0  0  0  0  0  0  0  0  0
    1.4960    2.9497   -1.6366 H   0  0  0  0  0  0  0  0  0  0  0  0
  1  2  1  0
  2  3  2  0
  3  4  1  0
  4  5  2  0
  5  6  1  0
  6  7  1  0
  7  8  1  0
  8  9  1  0
  9 10  2  0
  9 11  1  0
 11 12  1  0
 12 13  2  0
 13 14  1  0
 14 15  2  0
 15 16  1  0
 16 17  2  0
 17 18  1  0
 18 19  2  0
 19 20  1  0
  8 21  1  0
 21 22  2  0
 22 23  1  0
 23 24  2  0
 24 25  1  0
 25 26  2  0
 24 27  1  0
 27 28  1  0
 28 29  2  0
 29 30  1  0
 30 31  1  0
  6 32  2  0
 32  2  1  0
 20 12  1  0
 26 21  1  0
 31 27  2  0
 20 15  1  0
  3 33  1  0
  4 34  1  0
  5 35  1  0
  7 36  1  0
  7 37  1  0
 11 38  1  0
 11 39  1  0
 16 40  1  0
 17 41  1  0
 18 42  1  0
 19 43  1  0
 22 44  1  0
 23 45  1  0
 25 46  1  0
 26 47  1  0
 28 48  1  0
 30 49  1  0
 31 50  1  0
 32 51  1  0
M  END
>  <IC50 (nM)>  (3) 
Compound 1"

>  <cluster>  (3) 
365.0

>  <Column_4>  (3) 
1

>  <ScrubInfo>  (3) 
{"isomerGroup": 2, "isomerId": 0, "confId": 0, "nr_conformers:": 1, "nr_isomers:": 1}

$$$$
"US20240293380
     RDKit          3D

 74 78  0  0  0  0  0  0  0  0999 V2000
    3.9885   -6.3677    0.7780 C   0  0  0  0  0  0  0  0  0  0  0  0
    5.2367   -5.5676    0.5880 N   0  0  0  0  0  0  0  0  0  0  0  0
    4.8097   -4.1673    0.2487 C   0  0  0  0  0  0  0  0  0  0  0  0
    2.8782   -5.3868    0.6978 C   0  0  0  0  0  0  0  0  0  0  0  0
    3.3234   -4.1538    0.4096 C   0  0  0  0  0  0  0  0  0  0  0  0
    2.5185   -2.9379    0.2296 C   0  0  0  0  0  0  0  0  0  0  0  0
    1.2137   -2.8400    0.7256 C   0  0  0  0  0  0  0  0  0  0  0  0
    3.0386   -1.8179   -0.4276 C   0  0  0  0  0  0  0  0  0  0  0  0
    0.4494   -1.6742    0.5485 C   0  0  0  0  0  0  0  0  0  0  0  0
    2.2689   -0.6595   -0.6106 C   0  0  0  0  0  0  0  0  0  0  0  0
    0.9551   -0.5604   -0.1321 C   0  0  0  0  0  0  0  0  0  0  0  0
    0.1663    0.6280   -0.3849 N   0  0  0  0  0  0  0  0  0  0  0  0
   -1.3145    0.5018   -0.5156 C   0  0  0  0  0  0  0  0  0  0  0  0
    0.8113    1.8822   -0.4870 C   0  0  0  0  0  0  0  0  0  0  0  0
   -1.7979   -0.7953   -1.2391 C   0  0  0  0  0  0  0  0  0  0  0  0
   -2.0838    0.9260    0.7391 C   0  0  0  0  0  0  0  0  0  0  0  0
    1.9727    2.0631   -0.1125 O   0  0  0  0  0  0  0  0  0  0  0  0
    0.0063    3.0380   -1.0861 C   0  0  0  0  0  0  0  0  0  0  0  0
   -2.7541   -1.5638   -0.5987 N   0  0  0  0  0  0  0  0  0  0  0  0
   -1.3221   -1.1098   -2.3317 O   0  0  0  0  0  0  0  0  0  0  0  0
   -3.4012    1.4109    0.6059 C   0  0  0  0  0  0  0  0  0  0  0  0
   -1.5296    0.8837    2.0290 C   0  0  0  0  0  0  0  0  0  0  0  0
    0.7968    4.3146   -1.2660 C   0  0  0  0  0  0  0  0  0  0  0  0
   -3.3614   -2.7831   -1.1612 C   0  0  0  0  0  0  0  0  0  0  0  0
   -4.1272    1.8142    1.7261 C   0  0  0  0  0  0  0  0  0  0  0  0
   -2.2768    1.2946    3.1347 C   0  0  0  0  0  0  0  0  0  0  0  0
    1.4956    4.4987   -2.4615 C   0  0  0  0  0  0  0  0  0  0  0  0
    0.8874    5.3317   -0.2816 C   0  0  0  0  0  0  0  0  0  0  0  0
   -2.2988   -3.8603   -1.4326 C   0  0  0  0  0  0  0  0  0  0  0  0
   -4.3526   -3.3403   -0.1225 C   0  0  0  0  0  0  0  0  0  0  0  0
   -4.1315   -2.4680   -2.4526 C   0  0  0  0  0  0  0  0  0  0  0  0
   -5.3796    2.2591    1.5671 F   0  0  0  0  0  0  0  0  0  0  0  0
   -3.5767    1.7569    2.9955 C   0  0  0  0  0  0  0  0  0  0  0  0
   -1.7235    1.2380    4.3529 F   0  0  0  0  0  0  0  0  0  0  0  0
    2.2217    5.5904   -2.7683 N   0  0  0  0  0  0  0  0  0  0  0  0
    0.2731    5.2709    0.9904 C   0  0  0  0  0  0  0  0  0  0  0  0
    1.6441    6.4879   -0.5841 C   0  0  0  0  0  0  0  0  0  0  0  0
    2.2749    6.5563   -1.8270 C   0  0  0  0  0  0  0  0  0  0  0  0
    0.3934    6.3162    1.9124 C   0  0  0  0  0  0  0  0  0  0  0  0
    1.7554    7.5344    0.3487 C   0  0  0  0  0  0  0  0  0  0  0  0
    1.1326    7.4473    1.5915 C   0  0  0  0  0  0  0  0  0  0  0  0
    4.0493   -6.8534    1.7554 H   0  0  0  0  0  0  0  0  0  0  0  0
    3.9402   -7.1100   -0.0236 H   0  0  0  0  0  0  0  0  0  0  0  0
    5.7848   -5.5579    1.4551 H   0  0  0  0  0  0  0  0  0  0  0  0
    5.8216   -5.9630   -0.1563 H   0  0  0  0  0  0  0  0  0  0  0  0
    5.1257   -3.9813   -0.7820 H   0  0  0  0  0  0  0  0  0  0  0  0
    5.3224   -3.4953    0.9434 H   0  0  0  0  0  0  0  0  0  0  0  0
    1.8434   -5.6717    0.8368 H   0  0  0  0  0  0  0  0  0  0  0  0
    0.7549   -3.6599    1.2742 H   0  0  0  0  0  0  0  0  0  0  0  0
    4.0447   -1.8026   -0.8402 H   0  0  0  0  0  0  0  0  0  0  0  0
   -0.5389   -1.6680    0.9946 H   0  0  0  0  0  0  0  0  0  0  0  0
    2.7224    0.1539   -1.1748 H   0  0  0  0  0  0  0  0  0  0  0  0
   -1.6096    1.2519   -1.2599 H   0  0  0  0  0  0  0  0  0  0  0  0
   -0.8793    3.2389   -0.4761 H   0  0  0  0  0  0  0  0  0  0  0  0
   -0.3520    2.7272   -2.0765 H   0  0  0  0  0  0  0  0  0  0  0  0
   -3.2276   -1.1728    0.2047 H   0  0  0  0  0  0  0  0  0  0  0  0
   -3.8830    1.4883   -0.3692 H   0  0  0  0  0  0  0  0  0  0  0  0
   -0.5099    0.5507    2.2073 H   0  0  0  0  0  0  0  0  0  0  0  0
    1.4890    3.7423   -3.2433 H   0  0  0  0  0  0  0  0  0  0  0  0
   -2.7610   -4.7999   -1.7525 H   0  0  0  0  0  0  0  0  0  0  0  0
   -1.7010   -4.0673   -0.5344 H   0  0  0  0  0  0  0  0  0  0  0  0
   -1.6004   -3.5652   -2.2216 H   0  0  0  0  0  0  0  0  0  0  0  0
   -4.8227   -4.2658   -0.4723 H   0  0  0  0  0  0  0  0  0  0  0  0
   -5.1497   -2.6168    0.0867 H   0  0  0  0  0  0  0  0  0  0  0  0
   -3.8520   -3.5532    0.8294 H   0  0  0  0  0  0  0  0  0  0  0  0
   -3.4691   -2.1011   -3.2423 H   0  0  0  0  0  0  0  0  0  0  0  0
   -4.6321   -3.3620   -2.8397 H   0  0  0  0  0  0  0  0  0  0  0  0
   -4.8913   -1.6973   -2.2840 H   0  0  0  0  0  0  0  0  0  0  0  0
   -4.1492    2.0747    3.8591 H   0  0  0  0  0  0  0  0  0  0  0  0
   -0.3044    4.4025    1.2934 H   0  0  0  0  0  0  0  0  0  0  0  0
    2.8699    7.4206   -2.1098 H   0  0  0  0  0  0  0  0  0  0  0  0
   -0.0863    6.2401    2.8850 H   0  0  0  0  0  0  0  0  0  0  0  0
    2.3407    8.4219    0.1121 H   0  0  0  0  0  0  0  0  0  0  0  0
    1.2296    8.2602    2.3071 H   0  0  0  0  0  0  0  0  0  0  0  0
  1  2  1  0
  2  3  1  0
  4  1  1  0
  5  4  2  0
  6  5  1  0
  3  5  1  0
  7  6  2  0
  6  8  1  0
  9  7  1  0
  8 10  2  0
 11  9  2  0
 10 11  1  0
 12 11  1  0
 13 12  1  0
 12 14  1  0
 15 13  1  0
 13 16  1  0
 14 17  2  0
 14 18  1  0
 19 15  1  0
 15 20  2  0
 16 21  2  0
 22 16  1  0
 18 23  1  0
 24 19  1  0
 21 25  1  0
 26 22  2  0
 23 27  2  0
 28 23  1  0
 29 24  1  0
 24 30  1  0
 24 31  1  0
 25 32  1  0
 25 33  2  0
 33 26  1  0
 26 34  1  0
 27 35  1  0
 36 28  2  0
 28 37  1  0
 35 38  2  0
 39 36  1  0
 38 37  1  0
 37 40  2  0
 41 39  2  0
 40 41  1  0
  1 42  1  0
  1 43  1  0
  2 44  1  0
  2 45  1  0
  3 46  1  0
  3 47  1  0
  4 48  1  0
  7 49  1  0
  8 50  1  0
  9 51  1  0
 10 52  1  0
 13 53  1  0
 18 54  1  0
 18 55  1  0
 19 56  1  0
 21 57  1  0
 22 58  1  0
 27 59  1  0
 29 60  1  0
 29 61  1  0
 29 62  1  0
 30 63  1  0
 30 64  1  0
 30 65  1  0
 31 66  1  0
 31 67  1  0
 31 68  1  0
 33 69  1  0
 36 70  1  0
 38 71  1  0
 39 72  1  0
 40 73  1  0
 41 74  1  0
M  CHG  1   2   1
M  END
>  <IC50 (nM)>  (4) 
Compound 63"

>  <cluster>  (4) 
1027.0

>  <Column_4>  (4) 
2

>  <ScrubInfo>  (4) 
{"isomerGroup": 3, "isomerId": 0, "confId": 0, "nr_conformers:": 1, "nr_isomers:": 1}

$$$$
"US20240293380_i0
     RDKit          3D

 54 58  0  0  0  0  0  0  0  0999 V2000
   -4.9765    3.2219   -1.4113 F   0  0  0  0  0  0  0  0  0  0  0  0
   -3.6553    3.4416   -1.4241 C   0  0  0  0  0  0  0  0  0  0  0  0
   -3.1739    4.7145   -1.1516 C   0  0  0  0  0  0  0  0  0  0  0  0
   -1.8006    4.9311   -1.1645 C   0  0  0  0  0  0  0  0  0  0  0  0
   -1.1836    6.5003   -0.8219 Cl  0  0  0  0  0  0  0  0  0  0  0  0
   -0.9182    3.8863   -1.4497 C   0  0  0  0  0  0  0  0  0  0  0  0
   -1.4060    2.5989   -1.7287 C   0  0  0  0  0  0  0  0  0  0  0  0
   -0.4522    1.4566   -2.0113 C   0  0  0  0  0  0  0  0  0  0  0  0
    0.0924    0.8524   -0.7866 N   0  0  0  0  0  0  0  0  0  0  0  0
    1.3498    1.2898   -0.3611 C   0  0  0  0  0  0  0  0  0  0  0  0
    1.9114    2.2633   -0.8732 O   0  0  0  0  0  0  0  0  0  0  0  0
    2.0683    0.4784    0.7168 C   0  0  0  0  0  0  0  0  0  0  0  0
    3.4789    0.1156    0.3084 C   0  0  0  0  0  0  0  0  0  0  0  0
    4.5272    0.9428    0.7134 C   0  0  0  0  0  0  0  0  0  0  0  0
    5.8259    0.7301    0.4217 N   0  0  0  0  0  0  0  0  0  0  0  0
    6.0988   -0.3512   -0.3391 C   0  0  0  0  0  0  0  0  0  0  0  0
    5.1430   -1.2434   -0.8269 C   0  0  0  0  0  0  0  0  0  0  0  0
    5.5051   -2.3456   -1.6225 C   0  0  0  0  0  0  0  0  0  0  0  0
    4.5366   -3.2242   -2.1026 C   0  0  0  0  0  0  0  0  0  0  0  0
    3.1992   -3.0098   -1.7936 C   0  0  0  0  0  0  0  0  0  0  0  0
    2.8291   -1.9173   -1.0038 C   0  0  0  0  0  0  0  0  0  0  0  0
    3.7890   -1.0086   -0.4992 C   0  0  0  0  0  0  0  0  0  0  0  0
   -0.7989    0.0774    0.0134 C   0  0  0  0  0  0  0  0  0  0  0  0
   -1.5834   -0.9245   -0.5657 C   0  0  0  0  0  0  0  0  0  0  0  0
   -2.4755   -1.6693    0.2142 C   0  0  0  0  0  0  0  0  0  0  0  0
   -2.6179   -1.4226    1.5857 C   0  0  0  0  0  0  0  0  0  0  0  0
   -1.8441   -0.4076    2.1598 C   0  0  0  0  0  0  0  0  0  0  0  0
   -0.9466    0.3357    1.3817 C   0  0  0  0  0  0  0  0  0  0  0  0
   -3.5602   -2.2177    2.3596 C   0  0  0  0  0  0  0  0  0  0  0  0
   -3.8637   -2.0783    3.6977 C   0  0  0  0  0  0  0  0  0  0  0  0
   -4.7991   -3.0435    3.9594 N   0  0  0  0  0  0  0  0  0  0  0  0
   -5.0267   -3.7226    2.7981 C   0  0  0  0  0  0  0  0  0  0  0  0
   -4.2956   -3.2500    1.8160 N   0  0  0  0  0  0  0  0  0  0  0  0
   -2.7918    2.3871   -1.7094 C   0  0  0  0  0  0  0  0  0  0  0  0
   -3.8702    5.5164   -0.9317 H   0  0  0  0  0  0  0  0  0  0  0  0
    0.1550    4.0738   -1.4522 H   0  0  0  0  0  0  0  0  0  0  0  0
    0.3669    1.8272   -2.6411 H   0  0  0  0  0  0  0  0  0  0  0  0
   -0.9447    0.6914   -2.6218 H   0  0  0  0  0  0  0  0  0  0  0  0
    2.0849    1.0878    1.6292 H   0  0  0  0  0  0  0  0  0  0  0  0
    1.5446   -0.4425    0.9815 H   0  0  0  0  0  0  0  0  0  0  0  0
    4.3429    1.8362    1.3058 H   0  0  0  0  0  0  0  0  0  0  0  0
    7.1550   -0.4845   -0.5591 H   0  0  0  0  0  0  0  0  0  0  0  0
    6.5487   -2.5239   -1.8737 H   0  0  0  0  0  0  0  0  0  0  0  0
    4.8265   -4.0728   -2.7168 H   0  0  0  0  0  0  0  0  0  0  0  0
    2.4389   -3.6924   -2.1651 H   0  0  0  0  0  0  0  0  0  0  0  0
    1.7712   -1.7913   -0.7893 H   0  0  0  0  0  0  0  0  0  0  0  0
   -1.4958   -1.1739   -1.6192 H   0  0  0  0  0  0  0  0  0  0  0  0
   -3.0648   -2.4543   -0.2587 H   0  0  0  0  0  0  0  0  0  0  0  0
   -1.9317   -0.1676    3.2158 H   0  0  0  0  0  0  0  0  0  0  0  0
   -0.4038    1.1476    1.8593 H   0  0  0  0  0  0  0  0  0  0  0  0
   -3.5193   -1.4042    4.4680 H   0  0  0  0  0  0  0  0  0  0  0  0
   -5.2453   -3.2240    4.8482 H   0  0  0  0  0  0  0  0  0  0  0  0
   -5.7290   -4.5425    2.7294 H   0  0  0  0  0  0  0  0  0  0  0  0
   -3.2148    1.4061   -1.9074 H   0  0  0  0  0  0  0  0  0  0  0  0
  1  2  1  0
  2  3  2  0
  3  4  1  0
  4  5  1  0
  4  6  2  0
  6  7  1  0
  7  8  1  0
  8  9  1  0
  9 10  1  0
 10 11  2  0
 10 12  1  0
 12 13  1  0
 13 14  2  0
 14 15  1  0
 15 16  2  0
 16 17  1  0
 17 18  2  0
 18 19  1  0
 19 20  2  0
 20 21  1  0
 21 22  2  0
  9 23  1  0
 23 24  2  0
 24 25  1  0
 25 26  2  0
 26 27  1  0
 27 28  2  0
 26 29  1  0
 29 30  2  0
 30 31  1  0
 31 32  1  0
 32 33  2  0
  7 34  2  0
 34  2  1  0
 22 13  1  0
 28 23  1  0
 33 29  1  0
 22 17  1  0
  3 35  1  0
  6 36  1  0
  8 37  1  0
  8 38  1  0
 12 39  1  0
 12 40  1  0
 14 41  1  0
 16 42  1  0
 18 43  1  0
 19 44  1  0
 20 45  1  0
 21 46  1  0
 24 47  1  0
 25 48  1  0
 27 49  1  0
 28 50  1  0
 30 51  1  0
 31 52  1  0
 32 53  1  0
 34 54  1  0
M  END
>  <IC50 (nM)>  (5) 
Compound 12"

>  <cluster>  (5) 
15.0

>  <Column_4>  (5) 
0

>  <ScrubInfo>  (5) 
{"isomerGroup": 4, "isomerId": 0, "confId": 0, "nr_conformers:": 1, "nr_isomers:": 2}

$$$$
"US20240293380_i1
     RDKit          3D

 54 58  0  0  0  0  0  0  0  0999 V2000
   -4.1559   -4.0612    1.5847 N   0  0  0  0  0  0  0  0  0  0  0  0
   -5.0847   -5.0605    1.5471 C   0  0  0  0  0  0  0  0  0  0  0  0
   -5.7596   -5.0462    0.4234 N   0  0  0  0  0  0  0  0  0  0  0  0
   -5.2402   -3.9978   -0.2916 C   0  0  0  0  0  0  0  0  0  0  0  0
   -4.2344   -3.3518    0.4064 C   0  0  0  0  0  0  0  0  0  0  0  0
   -3.3856   -2.2145    0.0655 C   0  0  0  0  0  0  0  0  0  0  0  0
   -2.8954   -1.3495    1.0495 C   0  0  0  0  0  0  0  0  0  0  0  0
   -2.0840   -0.2588    0.7082 C   0  0  0  0  0  0  0  0  0  0  0  0
   -1.7304   -0.0123   -0.6220 C   0  0  0  0  0  0  0  0  0  0  0  0
   -0.9148    1.1080   -0.9715 N   0  0  0  0  0  0  0  0  0  0  0  0
   -1.2170    2.4042   -0.3453 C   0  0  0  0  0  0  0  0  0  0  0  0
   -0.2305    2.7825    0.7424 C   0  0  0  0  0  0  0  0  0  0  0  0
    1.1116    3.0592    0.4396 C   0  0  0  0  0  0  0  0  0  0  0  0
    2.0072    3.3943    1.4524 C   0  0  0  0  0  0  0  0  0  0  0  0
    3.2851    3.6502    1.1440 F   0  0  0  0  0  0  0  0  0  0  0  0
    1.6000    3.4718    2.7763 C   0  0  0  0  0  0  0  0  0  0  0  0
    0.2690    3.2188    3.0842 C   0  0  0  0  0  0  0  0  0  0  0  0
   -0.2628    3.3122    4.7181 Cl  0  0  0  0  0  0  0  0  0  0  0  0
   -0.6450    2.8846    2.0804 C   0  0  0  0  0  0  0  0  0  0  0  0
   -0.0540    1.1198   -2.0724 C   0  0  0  0  0  0  0  0  0  0  0  0
    0.2000    2.1521   -2.6997 O   0  0  0  0  0  0  0  0  0  0  0  0
    0.6810   -0.1781   -2.4100 C   0  0  0  0  0  0  0  0  0  0  0  0
    2.1792   -0.0017   -2.2953 C   0  0  0  0  0  0  0  0  0  0  0  0
    2.9022    0.3313   -3.4411 C   0  0  0  0  0  0  0  0  0  0  0  0
    4.2331    0.5399   -3.4712 N   0  0  0  0  0  0  0  0  0  0  0  0
    4.8814    0.4424   -2.2912 C   0  0  0  0  0  0  0  0  0  0  0  0
    4.2748    0.1364   -1.0725 C   0  0  0  0  0  0  0  0  0  0  0  0
    5.0172    0.0670    0.1203 C   0  0  0  0  0  0  0  0  0  0  0  0
    4.3943   -0.2339    1.3292 C   0  0  0  0  0  0  0  0  0  0  0  0
    3.0264   -0.4719    1.3573 C   0  0  0  0  0  0  0  0  0  0  0  0
    2.2806   -0.4072    0.1768 C   0  0  0  0  0  0  0  0  0  0  0  0
    2.8821   -0.0983   -1.0662 C   0  0  0  0  0  0  0  0  0  0  0  0
   -2.2359   -0.8694   -1.6077 C   0  0  0  0  0  0  0  0  0  0  0  0
   -3.0516   -1.9563   -1.2678 C   0  0  0  0  0  0  0  0  0  0  0  0
   -3.5058   -3.8940    2.3386 H   0  0  0  0  0  0  0  0  0  0  0  0
   -5.2189   -5.7626    2.3593 H   0  0  0  0  0  0  0  0  0  0  0  0
   -5.6236   -3.7569   -1.2750 H   0  0  0  0  0  0  0  0  0  0  0  0
   -3.1481   -1.4957    2.0969 H   0  0  0  0  0  0  0  0  0  0  0  0
   -1.7115    0.3656    1.5127 H   0  0  0  0  0  0  0  0  0  0  0  0
   -1.2081    3.1974   -1.1035 H   0  0  0  0  0  0  0  0  0  0  0  0
   -2.2421    2.3953    0.0468 H   0  0  0  0  0  0  0  0  0  0  0  0
    1.4807    3.0215   -0.5829 H   0  0  0  0  0  0  0  0  0  0  0  0
    2.3199    3.7343    3.5438 H   0  0  0  0  0  0  0  0  0  0  0  0
   -1.6846    2.7045    2.3468 H   0  0  0  0  0  0  0  0  0  0  0  0
    0.3839   -1.0214   -1.7836 H   0  0  0  0  0  0  0  0  0  0  0  0
    0.4051   -0.4568   -3.4347 H   0  0  0  0  0  0  0  0  0  0  0  0
    2.4095    0.4514   -4.4034 H   0  0  0  0  0  0  0  0  0  0  0  0
    5.9505    0.6301   -2.3547 H   0  0  0  0  0  0  0  0  0  0  0  0
    6.0889    0.2546    0.1132 H   0  0  0  0  0  0  0  0  0  0  0  0
    4.9767   -0.2794    2.2456 H   0  0  0  0  0  0  0  0  0  0  0  0
    2.5343   -0.7052    2.2979 H   0  0  0  0  0  0  0  0  0  0  0  0
    1.2140   -0.5981    0.2503 H   0  0  0  0  0  0  0  0  0  0  0  0
   -2.0430   -0.6909   -2.6628 H   0  0  0  0  0  0  0  0  0  0  0  0
   -3.4212   -2.5992   -2.0643 H   0  0  0  0  0  0  0  0  0  0  0  0
  1  2  1  0
  2  3  2  0
  3  4  1  0
  4  5  2  0
  5  6  1  0
  6  7  2  0
  7  8  1  0
  8  9  2  0
  9 10  1  0
 10 11  1  0
 11 12  1  0
 12 13  2  0
 13 14  1  0
 14 15  1  0
 14 16  2  0
 16 17  1  0
 17 18  1  0
 17 19  2  0
 10 20  1  0
 20 21  2  0
 20 22  1  0
 22 23  1  0
 23 24  2  0
 24 25  1  0
 25 26  2  0
 26 27  1  0
 27 28  2  0
 28 29  1  0
 29 30  2  0
 30 31  1  0
 31 32  2  0
  9 33  1  0
 33 34  2  0
  5  1  1  0
 34  6  1  0
 19 12  1  0
 32 23  1  0
 32 27  1  0
  1 35  1  0
  2 36  1  0
  4 37  1  0
  7 38  1  0
  8 39  1  0
 11 40  1  0
 11 41  1  0
 13 42  1  0
 16 43  1  0
 19 44  1  0
 22 45  1  0
 22 46  1  0
 24 47  1  0
 26 48  1  0
 28 49  1  0
 29 50  1  0
 30 51  1  0
 31 52  1  0
 33 53  1  0
 34 54  1  0
M  END
>  <IC50 (nM)>  (6) 
Compound 12"

>  <cluster>  (6) 
15.0

>  <Column_4>  (6) 
0

>  <ScrubInfo>  (6) 
{"isomerGroup": 4, "isomerId": 1, "confId": 0, "nr_conformers:": 1, "nr_isomers:": 2}

$$$$
