6 ENGINEERED: YES
     RDKit          3D

 52 56  0  0  0  0  0  0  0  0999 V2000
   -4.9922   -1.9054    0.9482 C   0  0  0  0  0  0  0  0  0  0  0  0
   -4.3325   -1.3225    1.9967 N   0  0  0  0  0  0  0  0  0  0  0  0
   -0.8204    1.2434   -0.9951 N   0  0  0  0  0  0  0  0  0  0  0  0
   -1.5131    3.3606    0.0313 C   0  0  0  0  0  0  0  0  0  0  0  0
    0.5327    0.8168   -0.8171 C   0  0  0  0  0  0  0  0  0  0  0  0
    3.2336    0.0031   -0.5141 C   0  0  0  0  0  0  0  0  0  0  0  0
   -2.6476    2.9887    0.8318 C   0  0  0  0  0  0  0  0  0  0  0  0
   -2.8136    3.7963    1.9348 C   0  0  0  0  0  0  0  0  0  0  0  0
   -0.8966    4.4790    0.5674 C   0  0  0  0  0  0  0  0  0  0  0  0
   -1.8995    0.3704   -1.1655 C   0  0  0  0  0  0  0  0  0  0  0  0
   -1.8312   -0.9743   -0.4643 C   0  0  0  0  0  0  0  0  0  0  0  0
   -4.1924   -1.8673   -0.1884 C   0  0  0  0  0  0  0  0  0  0  0  0
   -4.5986   -2.3839   -1.4232 C   0  0  0  0  0  0  0  0  0  0  0  0
   -5.8721   -2.9637   -1.4742 C   0  0  0  0  0  0  0  0  0  0  0  0
   -6.6924   -3.0192   -0.3442 C   0  0  0  0  0  0  0  0  0  0  0  0
   -6.2644   -2.4903    0.8802 C   0  0  0  0  0  0  0  0  0  0  0  0
   -1.0715    2.6716   -1.2338 C   0  0  0  0  0  0  0  0  0  0  0  0
    1.0090   -0.3464   -1.4359 C   0  0  0  0  0  0  0  0  0  0  0  0
    2.3417   -0.7509   -1.2813 C   0  0  0  0  0  0  0  0  0  0  0  0
    5.6016    0.1177    0.2711 C   0  0  0  0  0  0  0  0  0  0  0  0
    6.8627   -0.6719    0.1836 C   0  0  0  0  0  0  0  0  0  0  0  0
    6.9141   -2.1263    0.5940 C   0  0  0  0  0  0  0  0  0  0  0  0
    7.5682   -1.0867    1.4546 C   0  0  0  0  0  0  0  0  0  0  0  0
    2.7698    1.1688    0.0907 C   0  0  0  0  0  0  0  0  0  0  0  0
    1.4365    1.5742   -0.0660 C   0  0  0  0  0  0  0  0  0  0  0  0
   -3.0601   -1.2373    0.2563 N   0  0  0  0  0  0  0  0  0  0  0  0
   -3.1440   -0.9219    1.5648 N   0  0  0  0  0  0  0  0  0  0  0  0
    4.5548   -0.4703   -0.4040 N   0  0  0  0  0  0  0  0  0  0  0  0
   -2.9030    0.6892   -1.8100 O   0  0  0  0  0  0  0  0  0  0  0  0
    5.6077    1.1789    0.8747 O   0  0  0  0  0  0  0  0  0  0  0  0
   -1.6323    5.0252    2.0105 S   0  0  0  0  0  0  0  0  0  0  0  0
   -3.3141    2.1610    0.6155 H   0  0  0  0  0  0  0  0  0  0  0  0
   -3.5772    3.7218    2.6971 H   0  0  0  0  0  0  0  0  0  0  0  0
   -0.0333    5.0062    0.1841 H   0  0  0  0  0  0  0  0  0  0  0  0
   -1.0233   -1.0263    0.2707 H   0  0  0  0  0  0  0  0  0  0  0  0
   -1.6916   -1.7672   -1.2049 H   0  0  0  0  0  0  0  0  0  0  0  0
   -3.9735   -2.3260   -2.3075 H   0  0  0  0  0  0  0  0  0  0  0  0
   -6.2336   -3.3727   -2.4161 H   0  0  0  0  0  0  0  0  0  0  0  0
   -7.6784   -3.4730   -0.4154 H   0  0  0  0  0  0  0  0  0  0  0  0
   -6.8978   -2.5262    1.7596 H   0  0  0  0  0  0  0  0  0  0  0  0
   -0.1724    3.1426   -1.6501 H   0  0  0  0  0  0  0  0  0  0  0  0
   -1.8564    2.7952   -1.9896 H   0  0  0  0  0  0  0  0  0  0  0  0
    0.3764   -0.9355   -2.0940 H   0  0  0  0  0  0  0  0  0  0  0  0
    2.6715   -1.6560   -1.7857 H   0  0  0  0  0  0  0  0  0  0  0  0
    7.5095   -0.3542   -0.6285 H   0  0  0  0  0  0  0  0  0  0  0  0
    6.0202   -2.5993    0.9857 H   0  0  0  0  0  0  0  0  0  0  0  0
    7.5580   -2.7911    0.0297 H   0  0  0  0  0  0  0  0  0  0  0  0
    8.6508   -1.0358    1.4692 H   0  0  0  0  0  0  0  0  0  0  0  0
    7.1026   -0.8346    2.4017 H   0  0  0  0  0  0  0  0  0  0  0  0
    3.4165    1.7900    0.7040 H   0  0  0  0  0  0  0  0  0  0  0  0
    1.1248    2.4753    0.4533 H   0  0  0  0  0  0  0  0  0  0  0  0
    4.7662   -1.3400   -0.8750 H   0  0  0  0  0  0  0  0  0  0  0  0
  1  2  1  0
  1 12  2  0
  1 16  1  0
  2 27  2  0
  3  5  1  0
  3 10  1  0
  3 17  1  0
  4  7  1  0
  4  9  2  0
  4 17  1  0
  5 18  2  0
  5 25  1  0
  6 19  2  0
  6 24  1  0
  6 28  1  0
  7  8  2  0
  8 31  1  0
  9 31  1  0
 10 11  1  0
 10 29  2  0
 11 26  1  0
 12 13  1  0
 12 26  1  0
 13 14  2  0
 14 15  1  0
 15 16  2  0
 18 19  1  0
 20 21  1  0
 20 28  1  0
 20 30  2  0
 21 22  1  0
 21 23  1  0
 22 23  1  0
 24 25  2  0
 26 27  1  0
  7 32  1  0
  8 33  1  0
  9 34  1  0
 11 35  1  0
 11 36  1  0
 13 37  1  0
 14 38  1  0
 15 39  1  0
 16 40  1  0
 17 41  1  0
 17 42  1  0
 18 43  1  0
 19 44  1  0
 21 45  1  0
 22 46  1  0
 22 47  1  0
 23 48  1  0
 23 49  1  0
 24 50  1  0
 25 51  1  0
 28 52  1  0
M  END
>  <ScrubInfo>  (1) 
{"isomerGroup": 0, "isomerId": 0, "confId": 0, "nr_conformers:": 1, "nr_isomers:": 1}

$$$$
